Circuit: * C:\Users\new\Dropbox\Shared DB ATEES\ian\INTEC\Laboratorio de diseño de sistemas de control\Lab4. RLocus. Aplicación de control PI sobre planta con OpAmp\E4_1b.asc

Direct Newton iteration for .op point succeeded.

Date: Fri Dec 10 00:33:00 2021
Total elapsed time: 0.176 seconds.

tnom = 27
temp = 27
method = modified trap
totiter = 2128
traniter = 2125
tranpoints = 1062
accept = 1058
rejected = 4
matrix size = 18
fillins = 16
solver = Normal
Matrix Compiler1: 1.55 KB object code size  0.4/0.2/[0.1]
Matrix Compiler2: 1.96 KB object code size  0.2/0.3/[0.2]

