Circuit: * C:\Users\new\Dropbox\Shared DB ATEES\ian\INTEC\Laboratorio de diseño de sistemas de control\Lab4. RLocus. Aplicación de control PI sobre planta con OpAmp\E4_2a.asc

Direct Newton iteration for .op point succeeded.

Date: Fri Dec 10 00:22:14 2021
Total elapsed time: 0.161 seconds.

tnom = 27
temp = 27
method = modified trap
totiter = 2162
traniter = 2159
tranpoints = 1077
accept = 1076
rejected = 1
matrix size = 18
fillins = 16
solver = Normal
Matrix Compiler1: 1.55 KB object code size  0.5/0.3/[0.1]
Matrix Compiler2: 1.96 KB object code size  0.3/0.4/[0.2]

