Circuit: * C:\Users\new\Dropbox\Shared DB ATEES\ian\INTEC\Laboratorio de diseño de sistemas de control\Lab3. RLocus. Aplicación de control P sobre planta con OpAmp\E3_2.asc

Direct Newton iteration for .op point succeeded.

Date: Sat Nov 27 15:55:19 2021
Total elapsed time: 0.157 seconds.

tnom = 27
temp = 27
method = modified trap
totiter = 2159
traniter = 2156
tranpoints = 1075
accept = 1072
rejected = 3
matrix size = 16
fillins = 12
solver = Normal
Matrix Compiler1: 1.31 KB object code size  0.5/0.4/[0.1]
Matrix Compiler2: 1.74 KB object code size  0.3/0.6/[0.1]

