Circuit: * C:\Users\new\Dropbox\Shared DB ATEES\ian\INTEC\Laboratorio de diseño de sistemas de control\Lab3. RLocus. Aplicación de control P sobre planta con OpAmp\E3_3.asc

Direct Newton iteration for .op point succeeded.

Date: Sat Nov 27 16:18:45 2021
Total elapsed time: 0.076 seconds.

tnom = 27
temp = 27
method = modified trap
totiter = 2161
traniter = 2158
tranpoints = 1077
accept = 1074
rejected = 3
matrix size = 16
fillins = 12
solver = Normal
Matrix Compiler1: 1.31 KB object code size  0.4/0.2/[0.1]
Matrix Compiler2: off  [0.1]/0.3/0.2

